/*--------------------------------*- C++ -*----------------------------------*\
| =========                 |                                                 |
| \\      /  F ield         | OpenFOAM: The Open Source CFD Toolbox           |
|  \\    /   O peration     | Version:  v2306                                 |
|   \\  /    A nd           | Website:  www.openfoam.com                      |
|    \\/     M anipulation  |                                                 |
\*---------------------------------------------------------------------------*/
FoamFile
{
    version     2.0;
    format      ascii;
    class       volScalarField;
    object      omega;
}
// * * * * * * * * * * * * * * * * * * * * * * * * * * * * * * * * * * * * * //

dimensions      [0 0 -1 0 0 0 0];

internalField   uniform 15; //14.855

boundaryField
{
    inlet
    {
        type            fixedValue;
        value           uniform 15;  //14.855
    }

    outlet
    {
        type            zeroGradient;
    }

    wall1
    {
        type            omegaWallFunction;
        value           uniform 15;
    }

    // lowerWall
    // {
    //     type            epsilonWallFunction;
    //     value           uniform 14.855;
    // }

    // frontAndBack
    // {
    //     type            empty;
    // }
}


// ************************************************************************* //
