/*--------------------------------*- C++ -*----------------------------------*\
| =========                 |                                                 |
| \\      /  F ield         | OpenFOAM: The Open Source CFD Toolbox           |
|  \\    /   O peration     | Version:  v2306                                 |
|   \\  /    A nd           | Website:  www.openfoam.com                      |
|    \\/     M anipulation  |                                                 |
\*---------------------------------------------------------------------------*/
FoamFile
{
    version     2.0;
    format      ascii;
    class       dictionary;
    object      fvSolution;
}
// * * * * * * * * * * * * * * * * * * * * * * * * * * * * * * * * * * * * * //

solvers
{
    p
    {
        solver           GAMG;
        tolerance        1e-6;
        relTol           0.1;
        smoother         GaussSeidel;
    }

    pFinal
    {
        $p;
        relTol          0;
    }

    "(rho|U|h|k|epsilon|omega)"
    {
        // solver          PBiCGStab;
        // preconditioner  DILU;
        // tolerance       1e-8;
        solver          smoothSolver;
        smoother        symGaussSeidel;
        tolerance       1e-06;
        relTol          0.1;
    }

    "(rho|U|h|k|epsilon|e|omega)Final"
    {
        $U;
        relTol          0;
    }
}

PIMPLE
{

    nNonOrthogonalCorrectors 2;
    nOuterCorrectors 1;
    nCorrectors         2;
    pRefCell 0; 
    pRefValue 101325;
    transonic   yes;
}


relaxationFactors
{
    equations
    {
        "(rho|U|h|k|epsilon|e|omega)"           0.85; // 0.9 is more stable but 0.95 more convergent
                                                //p|U|k|epsilon

         "(rho|U|h|k|epsilon|e|omega)Final"           0.9; // 0.9 is more stable but 0.95 more convergent

    }
}

// ************************************************************************* //
